30

C      54.50      18.60      26.80
C      51.35      23.63      23.09
C      52.79      21.77      24.63
C      53.49      20.72      25.43
C      51.07      24.80      22.51
C      53.65      19.46      27.45
C      53.14      20.53      26.76
C      53.37      19.29      28.77
C      51.13      23.49      24.44
C      51.82      22.59      25.22
O      52.83      20.24      29.49
O      53.91      18.23      29.55
C      54.86      18.77      25.49
C      54.35      19.83      24.79
H      54.86      17.87      27.28
C      52.30      22.81      22.53
C      53.02      21.90      23.26
C      55.74      17.92      24.89
O      56.33      18.22      23.76
O      56.35      16.82      25.58
N      50.19      25.77      22.95
N      49.97      26.56      22.03
H      50.47      24.03      24.86
H      51.64      22.53      26.15
H      52.55      21.13      27.19
N      51.27      25.15      21.19
N      50.64      26.18      20.93
H      54.58      19.96      23.88
H      52.47      22.88      21.60
H      53.68      21.35      22.83
