30

C      38.46       9.34       0.60
C      38.46      16.18       2.04
C      38.46      13.50       1.22
H      36.43      11.83       0.87
C      38.46      12.05       0.89
C      38.46      17.51       1.91
H      36.46      15.94       1.98
H      36.42      13.74       1.30
C      39.66      10.00       0.67
C      39.67      11.36       0.82
C      40.83       9.31       0.55
C      39.63      15.50       1.83
C      39.66      14.19       1.44
O      41.96       9.92       0.30
O      40.89       7.90       0.34
H      38.46       8.40       0.49
H      40.49      11.83       0.87
H      40.46      15.94       1.98
H      40.49      13.74       1.30
N      39.54      18.37       2.03
N      39.13      19.53       2.14
O      34.95       9.92       0.30
O      36.03       7.90       0.34
C      37.26      10.00       0.67
C      37.25      11.36       0.82
C      36.09       9.31       0.55
C      37.29      15.50       1.83
C      37.26      14.19       1.44
N      37.38      18.37       2.03
N      37.79      19.53       2.14
