30

H      40.49       4.77      10.86
H      40.46       7.18      14.37
H      40.49       5.81      12.52
C      38.46       3.68       8.60
C      38.46       7.32      14.58
C      38.46       5.65      12.32
C      38.46       4.85      11.06
C      38.46       7.64      15.88
C      37.26       3.97       9.20
C      37.25       4.56      10.43
C      36.09       3.62       8.59
C      37.29       6.89      14.00
C      37.26       6.08      12.90
O      34.95       3.59       9.26
O      36.03       2.95       7.33
H      38.46       3.26       7.75
O      41.96       3.59       9.26
O      40.89       2.95       7.33
H      36.46       7.18      14.37
H      36.42       5.81      12.52
H      36.43       4.77      10.86
N      37.38       8.03      16.65
N      37.79       8.53      17.70
C      39.66       3.97       9.20
C      39.67       4.56      10.43
C      40.83       3.62       8.59
C      39.63       6.89      14.00
C      39.66       6.08      12.90
N      39.54       8.03      16.65
N      39.13       8.53      17.70
