30

C      44.86      24.54       1.83
C      46.00      25.17       1.44
N      42.32      23.19       2.03
N      41.11      22.96       2.14
H      48.46      25.64       0.87
H      44.88      23.60       1.98
H      46.81      24.67       1.30
C      49.60      28.64       0.60
C      43.67      25.22       2.04
C      46.00      26.56       1.22
C      47.26      27.28       0.89
C      42.52      24.55       1.91
C      48.43      29.35       0.67
C      47.25      28.67       0.82
C      48.44      30.71       0.55
C      43.68      26.57       1.83
C      44.80      27.25       1.44
O      47.34      31.38       0.30
O      49.63      31.46       0.34
H      50.42      29.11       0.49
O      50.85      25.31       0.30
O      52.06      27.25       0.34
N      41.24      25.05       2.03
N      40.44      24.12       2.14
H      46.43      29.15       0.87
H      42.88      27.07       1.98
H      44.77      28.20       1.30
C      49.63      27.27       0.67
C      48.46      26.58       0.82
C      50.81      26.60       0.55
