30

N      47.41      13.82       8.46
N      47.99      14.42       9.37
C      43.68       7.67       3.96
C      44.35       8.66       4.64
C      43.39       7.84       2.63
C      45.91      11.87       6.96
C      45.48      10.83       6.19
H      44.57       9.47       4.21
H      46.05      12.71       6.54
H      45.33      10.95       5.25
O      43.95       4.73       7.64
O      42.74       4.02       5.82
H      44.57       7.12       7.52
H      46.05      10.41       9.81
H      45.33       8.60       8.57
H      42.91       5.83       4.12
N      47.41      12.58      10.22
N      47.99      13.64      10.47
C      43.36       6.51       4.60
C      46.14      11.75       8.31
C      45.25       9.57       6.77
C      44.69       8.45       5.98
C      47.01      12.58       8.89
C      43.68       6.29       5.92
C      44.35       7.26       6.61
C      43.39       5.10       6.51
O      43.95       8.78       1.92
O      42.74       6.83       1.85
C      45.48       9.44       8.15
C      45.91      10.52       8.87
