30

H      23.24      28.64      12.52
C      22.42      31.47       8.60
C      25.57      29.65      14.58
C      24.13      30.48      12.32
C      23.43      30.88      11.06
C      25.84      29.49      15.88
C      23.26      32.36       9.20
C      23.78      32.07      10.43
C      23.55      33.55       8.59
C      25.79      30.88      14.00
C      25.10      31.31      12.90
O      24.09      34.55       9.26
O      23.00      33.94       7.33
H      22.06      31.67       7.75
O      20.59      28.48       9.26
O      20.57      29.72       7.33
C      22.06      30.28       9.20
C      22.57      29.98      10.43
C      21.18      29.44       8.59
C      24.61      28.84      14.00
C      23.90      29.23      12.90
H      24.37      32.68      10.86
H      26.44      31.45      14.37
H      25.28      32.17      12.52
N      26.73      30.22      16.65
N      26.95      29.62      17.70
N      25.65      28.36      16.65
N      26.28      28.46      17.70
H      22.34      29.17      10.86
H      24.44      27.99      14.37
