30

N      34.60       9.64      21.19
N      35.81       9.67      20.93
H      28.46       9.37      23.88
H      32.04       9.73      21.60
H      30.11       9.45      22.83
C      27.32      10.11      26.80
C      33.24      10.33      23.09
C      30.92      10.01      24.63
C      29.66       9.93      25.43
C      34.40       9.98      22.51
C      28.49      10.42      27.45
C      29.67      10.33      26.76
C      28.48      10.75      28.77
C      33.24      10.59      24.44
C      32.12      10.44      25.22
O      29.58      10.74      29.49
O      27.29      10.81      29.55
H      26.50      10.17      27.28
O      26.07       8.72      23.76
O      24.85       9.41      25.58
N      35.68      10.26      22.95
N      36.48      10.06      22.03
H      30.49      10.54      27.19
H      34.04      10.88      24.86
H      32.15      10.62      26.15
C      27.29       9.72      25.49
C      28.46       9.63      24.79
C      26.11       9.38      24.89
C      32.06       9.91      22.53
C      30.91       9.74      23.26
