30

C      53.65      32.36       9.20
C      53.14      32.07      10.43
C      53.37      33.55       8.59
C      51.13      30.88      14.00
C      51.82      31.31      12.90
N      50.19      30.22      16.65
N      49.97      29.62      17.70
H      52.55      32.68      10.86
H      50.47      31.45      14.37
H      51.64      32.17      12.52
C      54.50      31.47       8.60
C      51.35      29.65      14.58
C      52.79      30.48      12.32
C      53.49      30.88      11.06
C      51.07      29.49      15.88
C      54.86      30.28       9.20
C      54.35      29.98      10.43
C      55.74      29.44       8.59
C      52.30      28.84      14.00
C      53.02      29.23      12.90
O      56.33      28.48       9.26
O      56.35      29.72       7.33
H      54.86      31.67       7.75
O      52.83      34.55       9.26
O      53.91      33.94       7.33
N      51.27      28.36      16.65
N      50.64      28.46      17.70
H      54.58      29.17      10.86
H      52.47      27.99      14.37
H      53.68      28.64      12.52
