30

C      23.26      12.05      22.20
C      23.78      12.33      20.97
C      23.55      10.86      22.81
C      25.79      13.53      17.40
C      25.10      13.10      18.51
N      25.65      16.05      14.76
N      26.28      15.95      13.70
O      24.09       9.86      22.14
O      23.00      10.47      24.07
H      22.34      15.24      20.54
H      24.44      16.42      17.03
H      23.24      15.77      18.88
C      22.57      14.43      20.97
C      21.18      14.97      22.81
C      22.06      14.12      22.20
C      24.61      15.57      17.40
C      23.90      15.18      18.51
H      22.06      12.73      23.65
H      24.37      11.73      20.54
H      26.44      12.96      17.03
H      25.28      12.24      18.88
N      26.73      14.19      14.76
N      26.95      14.79      13.70
C      22.42      12.94      22.80
O      20.59      15.93      22.14
C      25.57      14.76      16.83
C      24.13      13.93      19.09
C      23.43      13.53      20.34
C      25.84      14.92      15.53
O      20.57      14.69      24.07
