30

N      26.73      25.77      22.95
C      23.26      19.46      27.45
C      23.78      20.53      26.76
N      26.95      26.56      22.03
C      25.79      23.49      24.44
C      25.10      22.59      25.22
C      23.55      19.29      28.77
H      24.37      21.13      27.19
H      26.44      24.03      24.86
H      25.28      22.53      26.15
C      22.42      18.60      26.80
C      25.57      23.63      23.09
C      24.13      21.77      24.63
C      23.43      20.72      25.43
C      25.84      24.80      22.51
C      22.06      18.77      25.49
C      22.57      19.83      24.79
C      21.18      17.92      24.89
C      24.61      22.81      22.53
C      23.90      21.90      23.26
O      20.59      18.22      23.76
O      20.57      16.82      25.58
H      22.06      17.87      27.28
O      24.09      20.24      29.49
O      23.00      18.23      29.55
N      25.65      25.15      21.19
N      26.28      26.18      20.93
H      22.34      19.96      23.88
H      24.44      22.88      21.60
H      23.24      21.35      22.83
