30

C      27.32      28.64       0.60
C      33.24      25.22       2.04
C      30.92      26.56       1.22
C      29.66      27.28       0.89
C      34.40      24.55       1.91
C      27.29      27.27       0.67
C      28.46      26.58       0.82
C      26.11      26.60       0.55
C      32.06      24.54       1.83
C      30.91      25.17       1.44
O      26.07      25.31       0.30
O      24.85      27.25       0.34
O      29.58      31.38       0.30
H      26.50      29.11       0.49
O      27.29      31.46       0.34
C      28.49      29.35       0.67
C      29.67      28.67       0.82
C      28.48      30.71       0.55
C      33.24      26.57       1.83
C      32.12      27.25       1.44
N      34.60      23.19       2.03
N      35.81      22.96       2.14
H      28.46      25.64       0.87
H      32.04      23.60       1.98
H      30.11      24.67       1.30
N      35.68      25.05       2.03
N      36.48      24.12       2.14
H      30.49      29.15       0.87
H      34.04      27.07       1.98
H      32.15      28.20       1.30
