16

N      50.19      25.77      22.95
N      49.97      26.56      22.03
N      50.19      30.22      16.65
O      48.52      28.01      19.81
Cu      48.49      29.81      19.15
N      49.97      29.62      17.70
Cu      48.49      27.99      21.72
N      51.27      28.36      16.65
N      50.64      28.46      17.70
Cu      50.06      27.09      19.15
N      51.27      25.15      21.19
N      50.64      26.18      20.93
N      47.41      31.83      21.19
N      47.99      30.77      20.93
N      47.41      30.58      22.95
N      47.99      29.99      22.03
