14

C      33.53      36.57      28.77
O      31.62      36.41      31.70
O      32.83      38.35      31.74
O      34.95      34.48      31.10
O      36.03      36.51      31.06
C      36.09      35.10      30.85
C      34.14      36.22      34.04
Cu      34.51      37.57      31.40
O      33.60      35.27      33.32
O      34.68      37.29      33.25
Cu      33.17      35.25      31.40
O      32.97      35.63      29.49
O      34.18      37.58      29.55
C      31.58      37.70      31.95
