14

O      26.07       8.72      23.76
O      24.85       9.41      25.58
C      23.55      10.86      22.81
O      22.74       7.51      22.14
O      21.66       8.15      24.07
C      26.11       9.38      24.89
O      24.09       9.86      22.14
Cu      24.52       8.05      22.76
Cu      23.18       8.82      24.95
O      23.00      10.47      24.07
O      24.72       6.37      23.76
C      24.16       6.01      24.89
O      23.51       7.08      25.58
C      21.60       7.48      22.81
