14

O      24.09      34.55       9.26
O      23.00      33.94       7.33
Cu      24.52      36.36       8.64
O      24.72      38.04       7.64
C      23.55      33.55       8.59
Cu      23.18      35.59       6.45
C      26.11      35.03       6.51
O      23.51      37.33       5.82
C      24.16      38.40       6.51
C      21.60      36.93       8.59
O      26.07      35.69       7.64
O      24.85      35.00       5.82
O      22.74      36.90       9.26
O      21.66      36.26       7.33
