14

Cu      19.23      27.20       8.64
O      20.57      27.59       5.82
O      20.59      26.19       7.64
C      17.28      29.44       8.59
Cu      19.23      28.74       6.45
C      17.28      26.49       6.51
O      17.87      28.48       9.26
O      17.89      29.72       7.33
O      20.59      28.48       9.26
O      20.57      29.72       7.33
C      21.18      26.49       6.51
C      21.18      29.44       8.59
O      17.87      26.19       7.64
O      17.89      27.59       5.82
