14

C      43.39       7.84       2.63
O      43.32       9.14      -1.92
O      42.23       7.12      -1.85
C      45.34       6.71      -0.55
C      42.78       8.18      -2.63
O      43.95       8.78       1.92
O      42.74       6.83       1.85
O      45.30       8.00      -0.30
Cu      43.75       9.16       0.00
O      44.08       6.06      -0.34
Cu      42.41       6.84       0.00
C      40.83       9.31       0.55
O      41.96       9.92       0.30
O      40.89       7.90       0.34
