16

O      48.52      16.40      11.59
Cu      48.49      16.41       9.68
N      51.27      16.05      14.76
N      50.64      15.95      13.70
N      47.41      12.58      10.22
N      47.99      13.64      10.47
N      47.41      13.82       8.46
N      47.99      14.42       9.37
N      50.19      14.19      14.76
N      49.97      14.79      13.70
N      50.19      18.64       8.46
N      49.97      17.85       9.37
Cu      50.06      17.32      12.25
Cu      48.49      14.60      12.25
N      51.27      19.26      10.22
N      50.64      18.23      10.47
