14

O      26.07      25.31       0.30
O      24.85      27.25       0.34
C      23.55      25.12       2.63
O      22.74      23.38      -0.30
Cu      24.52      24.15       0.00
Cu      23.18      26.46       0.00
O      21.66      25.41      -0.34
O      24.09      24.16       1.92
C      21.60      24.00      -0.55
O      23.00      26.18       1.85
C      24.16      25.47      -2.63
C      26.11      26.60       0.55
O      24.72      24.53      -1.92
O      23.51      26.48      -1.85
