16

N      26.73      30.22      16.65
N      26.95      29.62      17.70
O      28.40      28.01      19.81
Cu      28.43      27.99      21.72
Cu      28.43      29.81      19.15
N      26.95      26.56      22.03
N      26.73      25.77      22.95
N      25.65      25.15      21.19
Cu      26.86      27.09      19.15
N      26.28      26.18      20.93
N      25.65      28.36      16.65
N      26.28      28.46      17.70
N      29.51      31.83      21.19
N      28.93      30.77      20.93
N      29.51      30.58      22.95
N      28.93      29.99      22.03
